22  

C       0.650418    1.233274    0.183931 
C      -0.719434    1.202116   -0.134978 
C       1.368665    0.031498    0.319020 
C       0.719675   -1.202058    0.134703 
C      -0.649705   -1.232812   -0.183888 
C      -1.369619   -0.032019   -0.318788 
H       2.440134    0.057463    0.568700 
H       1.163127    2.198013    0.327198 
H      -1.282269    2.143290   -0.241025 
H      -2.441884   -0.059011   -0.570326 
H      -1.157487   -2.198714   -0.327834 
H       1.282136   -2.143667    0.239751 
Rn     -4.327280    2.458830   -0.862634 
Rn     -5.091111   -0.302720   -2.692367 
Rn     -3.854542   -2.929349   -0.938845 
Fr      0.942708   -6.910462   -3.015431 
Kr      2.522656   -4.918800    2.113044 
Kr      4.299251   -2.136324    0.918823 
Kr      4.402836    2.173469    1.101106 
Kr      3.216767    4.838720   -0.748882 
Kr     -0.073775    5.005641    0.087098 
Fr     -2.531545    5.012574   -2.380796 
